*SPEF "IEEE 1481-1998"
*DESIGN "xor_sbox"
*DATE "Sun Feb  9 21:43:45 2025"
*VENDOR "Cadence Design Systems, Inc."
*PROGRAM "Innovus"
*VERSION "21.37-s075_1"
*DESIGN_FLOW "COUPLING C" "PIN_CAP NONE" "NAME_SCOPE LOCAL"
*DIVIDER /
*DELIMITER :
*BUS_DELIMITER []
*T_UNIT 1 NS
*C_UNIT 1 PF
*R_UNIT 1 OHM
*L_UNIT 1 HENRY

// MMMC spef file for corner 'typical_rc_corner'

*NAME_MAP

*1 text[7]
*2 text[6]
*3 text[5]
*4 text[4]
*5 text[3]
*6 text[2]
*7 text[1]
*8 text[0]
*9 key[7]
*10 key[6]
*11 key[5]
*12 key[4]
*13 key[3]
*14 key[2]
*15 key[1]
*16 key[0]
*17 out0[7]
*18 out0[6]
*19 out0[5]
*20 out0[4]
*21 out0[3]
*22 out0[2]
*23 out0[1]
*24 out0[0]
*25 n1111
*26 n1112
*27 n1113
*28 n1114
*29 n1115
*30 n1116
*31 n1117
*32 n1118
*33 n1119
*34 n1120
*35 n1121
*36 n1122
*37 n1123
*38 n1124
*39 n1125
*40 n1126
*41 n1127
*42 n1128
*43 n1129
*44 n1130
*45 n1131
*46 n1132
*47 n1133
*48 n1134
*49 n1135
*50 n1136
*51 n1137
*52 n1138
*53 n1139
*54 n1140
*55 n1141
*56 n1142
*57 n1143
*58 n1144
*59 n1145
*60 n1146
*61 n1147
*62 n1148
*63 n1149
*64 n1150
*65 n1151
*66 n1152
*67 n1153
*68 n1154
*69 n1155
*70 n1156
*71 n1157
*72 n1158
*73 n1159
*74 n1160
*75 n1161
*76 n1162
*77 n1163
*78 n1164
*79 n1165
*80 n1166
*81 n1167
*82 n1168
*83 n1169
*84 n1170
*85 n1171
*86 n1172
*87 n1173
*88 n1174
*89 n1175
*90 n1176
*91 n1177
*92 n1178
*93 n1179
*94 n1180
*95 n1181
*96 n1182
*97 n1183
*98 n1184
*99 n1185
*100 n1186
*101 n1187
*102 n1188
*103 n1189
*104 n1190
*105 n1191
*106 n1192
*107 n1193
*108 n1194
*109 n1195
*110 n1196
*111 n1197
*112 n1198
*113 n1199
*114 n1200
*115 n1201
*116 n1202
*117 n1203
*118 n1204
*119 n1205
*120 n1206
*121 n1207
*122 n1208
*123 n1209
*124 n1210
*125 n1211
*126 n1212
*127 n1213
*128 n1214
*129 n1215
*130 n1216
*131 n1217
*132 n1218
*133 n1219
*134 n1220
*135 n1221
*136 n1222
*137 n1223
*138 n1224
*139 n1225
*140 n1226
*141 n1227
*142 n1228
*143 n1229
*144 n1230
*145 n1231
*146 n1232
*147 n1233
*148 n1234
*149 n1235
*150 n1236
*151 n1237
*152 n1238
*153 n1239
*154 n1240
*155 n1241
*156 n1242
*157 n1243
*158 n1244
*159 n1245
*160 n1246
*161 n1247
*162 n1248
*163 n1249
*164 n1250
*165 n1251
*166 n1252
*167 n1253
*168 n1254
*169 n1255
*170 n1256
*171 n1257
*172 n1258
*173 n1259
*174 n1260
*175 n1261
*176 n1262
*177 n1263
*178 n1264
*179 n1265
*180 n1266
*181 n1267
*182 n1268
*183 n1269
*184 n1270
*185 n1271
*186 n1272
*187 n1273
*188 n1274
*189 n1275
*190 n1276
*191 n1277
*192 n1278
*193 n1279
*194 n1280
*195 n1281
*196 n1282
*197 n1283
*198 n1284
*199 n1285
*200 n1286
*201 n1287
*202 n1288
*203 n1289
*204 n1290
*205 n1291
*206 n1292
*207 n1293
*208 n1294
*209 n1295
*210 n1296
*211 n1297
*212 n1298
*213 n1299
*214 n1300
*215 n1301
*216 n1302
*217 n1303
*218 n1304
*219 n1305
*220 n1306
*221 n1307
*222 n1308
*223 n1309
*224 n1310
*225 n1311
*226 n1312
*227 n1313
*228 n1314
*229 n1315
*230 n1316
*231 n1317
*232 n1318
*233 n1319
*234 n1320
*235 n1321
*236 n1322
*237 n1323
*238 n1324
*239 n1325
*240 n1326
*241 n1327
*242 n1328
*243 n1329
*244 n1330
*245 n1331
*246 n1332
*247 n1333
*248 n1334
*249 n1335
*250 n1336
*251 n1337
*252 n1338
*253 n1339
*254 n1340
*255 n1341
*256 n1342
*257 n1343
*258 n1344
*259 n1345
*260 n1346
*261 n1347
*262 n1348
*263 n1349
*264 n1350
*265 n1351
*266 n1352
*267 n1353
*268 n1354
*269 n1355
*270 n1356
*271 n1357
*272 n1358
*273 n1359
*274 n1360
*275 n1361
*276 n1362
*277 n1363
*278 n1364
*279 n1365
*280 n1366
*281 n1367
*282 n1368
*283 n1369
*284 n1370
*285 n1371
*286 n1372
*287 n1373
*288 n1374
*289 n1375
*290 n1376
*291 n1377
*292 n1378
*293 n1379
*294 n1380
*295 n1381
*296 n1382
*297 n1383
*298 n1384
*299 n1385
*300 n1386
*301 n1387
*302 n1388
*303 n1389
*304 n1390
*305 n1391
*306 n1392
*307 n1393
*308 n1394
*309 n1395
*310 n1396
*311 n1397
*312 n1398
*313 n1399
*314 n1400
*315 n1401
*316 n1402
*317 n1403
*318 n1404
*319 n1405
*320 n1406
*321 n1407
*322 n1408
*323 n1409
*324 n1410
*325 n1411
*326 n1412
*327 n1413
*328 n1414
*329 n1415
*330 n1416
*331 n1417
*332 n1418
*333 n1419
*334 n1420
*335 n1421
*336 n1422
*337 n1423
*338 n1424
*339 n1425
*340 n1426
*341 n1427
*342 n1428
*343 n1429
*344 n1430
*345 n1431
*346 n1432
*347 n1433
*348 n1434
*349 n1435
*350 n1436
*351 n1437
*352 n1438
*353 n1439
*354 n1440
*355 n1441
*356 n1442
*357 n1443
*358 n1444
*359 n1445
*360 n1446
*361 n1447
*362 n1448
*363 n1449
*364 n1450
*365 n1451
*366 n1452
*367 n1453
*368 n1454
*369 n1455
*370 n1456
*371 n1457
*372 n1458
*373 n1459
*374 n1460
*375 n1461
*376 n1462
*377 n1463
*378 n1464
*379 n1465
*380 n1466
*381 n1467
*382 n1468
*383 n1469
*384 n1470
*385 n1471
*386 n1472
*387 n1473
*388 n1474
*389 n1475
*390 n1476
*391 n1477
*392 n1478
*393 U752
*394 U753
*395 U754
*396 U755
*397 U756
*398 U757
*399 U758
*400 U759
*401 U760
*402 U761
*403 U762
*404 U763
*405 U764
*406 U765
*407 U766
*408 U767
*409 U768
*410 U769
*411 U770
*412 U771
*413 U772
*414 U773
*415 U774
*416 U775
*417 U776
*418 U777
*419 U778
*420 U779
*421 U780
*422 U781
*423 U782
*424 U783
*425 U784
*426 U785
*427 U786
*428 U787
*429 U788
*430 U789
*431 U790
*432 U791
*433 U792
*434 U793
*435 U794
*436 U795
*437 U796
*438 U797
*439 U798
*440 U799
*441 U800
*442 U801
*443 U802
*444 U803
*445 U804
*446 U805
*447 U806
*448 U807
*449 U808
*450 U809
*451 U810
*452 U811
*453 U812
*454 U813
*455 U814
*456 U815
*457 U816
*458 U817
*459 U818
*460 U819
*461 U820
*462 U821
*463 U822
*464 U823
*465 U824
*466 U825
*467 U826
*468 U827
*469 U828
*470 U829
*471 U830
*472 U831
*473 U832
*474 U833
*475 U834
*476 U835
*477 U836
*478 U837
*479 U838
*480 U839
*481 U840
*482 U841
*483 U842
*484 U843
*485 U844
*486 U845
*487 U846
*488 U847
*489 U848
*490 U849
*491 U850
*492 U851
*493 U852
*494 U853
*495 U854
*496 U855
*497 U856
*498 U857
*499 U858
*500 U859
*501 U860
*502 U861
*503 U862
*504 U863
*505 U864
*506 U865
*507 U866
*508 U867
*509 U868
*510 U869
*511 U870
*512 U871
*513 U872
*514 U873
*515 U874
*516 U875
*517 U876
*518 U877
*519 U878
*520 U879
*521 U880
*522 U881
*523 U882
*524 U883
*525 U884
*526 U885
*527 U886
*528 U887
*529 U888
*530 U889
*531 U890
*532 U891
*533 U892
*534 U893
*535 U894
*536 U895
*537 U896
*538 U897
*539 U898
*540 U899
*541 U900
*542 U901
*543 U902
*544 U903
*545 U904
*546 U905
*547 U906
*548 U907
*549 U908
*550 U909
*551 U910
*552 U911
*553 U912
*554 U913
*555 U914
*556 U915
*557 U916
*558 U917
*559 U918
*560 U919
*561 U920
*562 U921
*563 U922
*564 U923
*565 U924
*566 U925
*567 U926
*568 U927
*569 U928
*570 U929
*571 U930
*572 U931
*573 U932
*574 U933
*575 U934
*576 U935
*577 U936
*578 U937
*579 U938
*580 U939
*581 U940
*582 U941
*583 U942
*584 U943
*585 U944
*586 U945
*587 U946
*588 U947
*589 U948
*590 U949
*591 U950
*592 U951
*593 U952
*594 U953
*595 U954
*596 U955
*597 U956
*598 U957
*599 U958
*600 U959
*601 U960
*602 U961
*603 U962
*604 U963
*605 U964
*606 U965
*607 U966
*608 U967
*609 U968
*610 U969
*611 U970
*612 U971
*613 U972
*614 U973
*615 U974
*616 U975
*617 U976
*618 U977
*619 U978
*620 U979
*621 U980
*622 U981
*623 U982
*624 U983
*625 U984
*626 U985
*627 U986
*628 U987
*629 U988
*630 U989
*631 U990
*632 U991
*633 U992
*634 U993
*635 U994
*636 U995
*637 U996
*638 U997
*639 U998
*640 U999
*641 U1000
*642 U1001
*643 U1002
*644 U1003
*645 U1004
*646 U1005
*647 U1006
*648 U1007
*649 U1008
*650 U1009
*651 U1010
*652 U1011
*653 U1012
*654 U1013
*655 U1014
*656 U1015
*657 U1016
*658 U1017
*659 U1018
*660 U1019
*661 U1020
*662 U1021
*663 U1022
*664 U1023
*665 U1024
*666 U1025
*667 U1026
*668 U1027
*669 U1028
*670 U1029
*671 U1030
*672 U1031
*673 U1032
*674 U1033
*675 U1034
*676 U1035
*677 U1036
*678 U1037
*679 U1038
*680 U1039
*681 U1040
*682 U1041
*683 U1042
*684 U1043
*685 U1044
*686 U1045
*687 U1046
*688 U1047
*689 U1048
*690 U1049
*691 U1050
*692 U1051
*693 U1052
*694 U1053
*695 U1054
*696 U1055
*697 U1056
*698 U1057
*699 U1058
*700 U1059
*701 U1060
*702 U1061
*703 U1062
*704 U1063
*705 U1064
*706 U1065
*707 U1066
*708 U1067
*709 U1068
*710 U1069
*711 U1070
*712 U1071
*713 U1072
*714 U1073
*715 U1074
*716 U1075
*717 U1076
*718 U1077
*719 U1078
*720 U1079
*721 U1080
*722 U1081
*723 U1082
*724 U1083
*725 U1084
*726 U1085
*727 U1086
*728 U1087
*729 U1088
*730 U1089
*731 U1090
*732 U1091
*733 U1092
*734 U1093
*735 U1094
*736 U1095
*737 U1096
*738 U1097
*739 U1098
*740 U1099
*741 U1100
*742 U1101
*743 U1102
*744 U1103
*745 U1104
*746 U1105
*747 U1106
*748 U1107
*749 U1108
*750 U1109
*751 U1110
*752 U1111
*753 U1112
*754 U1113
*755 U1114
*756 U1115
*757 U1116
*758 U1117
*759 U1118
*760 U1119
*761 U1120
*762 U1121
*763 U1122
*764 U1123
*765 U1124
*766 U1125
*767 U1126
*768 U1127


*PORTS

*1 I *C 0 0
*2 I *C 0 0
*3 I *C 0 0
*4 I *C 0 0
*5 I *C 0 0
*6 I *C 0 0
*7 I *C 0 0
*8 I *C 0 0
*9 I *C 0 0
*10 I *C 0 0
*11 I *C 0 0
*12 I *C 0 0
*13 I *C 0 0
*14 I *C 0 0
*15 I *C 0 0
*16 I *C 0 0
*17 O *C 0 0
*18 O *C 0 0
*19 O *C 0 0
*20 O *C 0 0
*21 O *C 0 0
*22 O *C 0 0
*23 O *C 0 0
*24 O *C 0 0


*D_NET *25 0.00236583

*CONN
*I *456:A I *C 67 87.4 *L 0.00202 *D INVX1TR
*I *448:A I *C 65 87 *L 0.00229 *D NAND2X1TR
*I *447:Y O *C 62.2 88.2 *L 0 *D XOR2X1TR
*I *405:A I *C 64.6 84.2 *L 0.00242 *D NOR2X1TR

*CAP
1 *456:A 4.80361e-05
2 *448:A 0.000111819
3 *405:A 0.000482377
4 *447:Y 9.25081e-05
5 *25:4 0.000214877
6 *25:5 0.000930547734
7 *25:6 0.000485657

*RES
1 *25:6 *447:Y 6.18613
2 *405:A *25:5 6.85620308
3 *448:A *25:4 0.399115
4 *25:4 *25:5 3.05577
5 *25:5 *25:6 6.77596
6 *456:A *25:4 0.202748
*END

*D_NET *26 0.00374413

*CONN
*I *469:B I *C 77.8 58.6 *L 0.00242 *D NAND2X1TR
*I *465:A I *C 84.2 58.2 *L 0.00242 *D NOR2X1TR
*I *462:A I *C 77.8 62.6 *L 0.00229 *D NAND2X1TR
*I *432:Y O *C 84.2 63.4 *L 0 *D INVX1TR

*CAP
1 *465:A 0.000436006
2 *432:Y 5.98505e-05
3 *462:A 0.000282831
4 *469:B 0.0004639
5 *26:4 0.000144126
6 *26:5 0.0010655
7 *26:6 0.0012919307

*RES
1 *469:B *26:6 3.40951
2 *462:A *26:6 6.33504
3 *26:6 *26:5 7.12609291
4 *26:5 *26:4 3.17584
5 *26:4 *432:Y 0.278689
6 *465:A *26:5 6.70735
*END

*D_NET *27 0.00389826

*CONN
*I *481:A I *C 82.2 62.6 *L 0.00229 *D NAND2X1TR
*I *465:B I *C 85 58.6 *L 0.00231 *D NOR2X1TR
*I *461:A I *C 82.2 58.6 *L 0.00202 *D INVX1TR
*I *453:A I *C 80.6 62.6 *L 0.00229 *D NAND2X1TR
*I *450:Y O *C 87.8 59.4 *L 0 *D XOR2X1TR

*CAP
1 *450:Y 0.000344332
2 *461:A 0.000654938
3 *453:A 0.000141562
4 *27:5 0.000375513
5 *27:6 0.000432911
6 *27:7 0.000721573828
7 *27:8 0.000710486
8 *27:9 0.000516954

*RES
1 *453:A *27:9 0.475133
2 *481:A *27:9 0.499948
3 *27:9 *27:8 9.67016
4 *461:A *27:7 10.424614
5 *465:B *27:7 3
6 *27:7 *27:6 0.148887
7 *27:6 *27:5 3.03723
8 *27:5 *450:Y 9.70738
9 *27:8 *27:6 3.65154
*END

*D_NET *28 0.00447416

*CONN
*I *483:B I *C 59.4 83.8 *L 0.00231 *D NOR2X1TR
*I *468:B I *C 56.2 87.4 *L 0.00242 *D NAND2X1TR
*I *457:B I *C 56.6 83.8 *L 0.00242 *D NAND2X1TR
*I *448:B I *C 64.2 87.4 *L 0.00242 *D NAND2X1TR
*I *406:Y O *C 53.8 88.6 *L 0 *D XNOR2X1TR
*I *405:B I *C 63.8 83.8 *L 0.00231 *D NOR2X1TR

*CAP
1 *448:B 0.000410314
2 *405:B 5.42387e-05
3 *483:B 8.84487e-05
4 *457:B 0.000194251
5 *468:B 9.25128e-05
6 *406:Y 7.71311e-05
7 *28:6 0.00112378594
8 *28:7 0.00101888
9 *28:8 0.000730688
10 *28:9 0.000482267
11 *28:10 0.000201642

*RES
1 *28:10 *406:Y 6.16749
2 *28:9 *28:10 0.279238
3 *28:8 *28:9 0.65152
4 *468:B *28:9 3.27756
5 *457:B *28:8 3.40784
6 *28:7 *28:8 0.595715
7 *483:B *28:7 3.3485
8 *28:6 *28:7 7.03310966
9 *405:B *28:6 3.22176
10 *448:B *28:6 3.82101
*END

*D_NET *29 0.00244737

*CONN
*I *463:A I *C 74.6 79.8 *L 0.00229 *D NAND2X1TR
*I *446:A I *C 73 83.8 *L 0.00202 *D INVX1TR
*I *445:Y O *C 73.4 88.2 *L 0 *D XOR2X1TR
*I *429:B I *C 73 79.8 *L 0.00451 *D NOR2X2TR

*CAP
1 *463:A 6.69947e-05
2 *445:Y 0.000278527
3 *446:A 8.45251e-05
4 *429:B 5.51906e-05
5 *29:4 0.000553187
6 *29:5 0.000822961328
7 *29:6 0.000585975

*RES
1 *429:B *29:6 0.221752
2 *446:A *29:5 3.34844
3 *29:4 *445:Y 6.63292408
4 *29:6 *29:5 3.91209
5 *29:5 *29:4 0.42812
6 *463:A *29:6 0.221752
*END

*D_NET *30 0.00490665

*CONN
*I *493:B I *C 65.8 65.8 *L 0.00231 *D NOR2X1TR
*I *459:B I *C 76.2 62.2 *L 0.00231 *D NOR2X1TR
*I *453:Y O *C 80.2 61.8 *L 0 *D NAND2X1TR
*I *417:A I *C 65.4 62.2 *L 0.00293 *D CLKINVX2TR

*CAP
1 *453:Y 0.000234079
2 *459:B 0.000107174
3 *493:B 0.000300576
4 *417:A 0.000286827
5 *30:4 0.00057249
6 *30:5 0.00163187
7 *30:6 0.00177365547

*RES
1 *417:A *30:6 6.48385
2 *493:B *30:6 3.40955
3 *30:6 *30:5 5.34528
4 *459:B *30:5 6.13036
5 *30:5 *30:4 0.725932
6 *30:4 *453:Y 9.40954685
*END

*D_NET *31 0.000967741

*CONN
*I *495:B I *C 48.6 26.6 *L 0.00253 *D NAND4BX1TR
*I *491:Y O *C 46.6 28.6 *L 0 *D NOR4BX1TR

*CAP
1 *495:B 0.00033164
2 *491:Y 0.000152231
3 *31:2 0.000483870508

*RES
1 *31:2 *491:Y 3.63353
2 *495:B *31:2 6.40952587
*END

*D_NET *32 0.000931859

*CONN
*I *501:A I *C 21.4 62.2 *L 0.00202 *D INVX1TR
*I *500:Y O *C 21 66.6 *L 0 *D NAND3BX1TR

*CAP
1 *500:Y 0.000465929492
2 *501:A 0.000465929492

*RES
1 *501:A *500:Y 9.76515
*END

*D_NET *33 0.00562477

*CONN
*I *512:D I *C 56.6 19 *L 0.0027 *D NOR4BX1TR
*I *511:Y O *C 37.8 23 *L 0 *D NAND4X1TR

*CAP
1 *512:D 0.00119639
2 *511:Y 0.000281627
3 *33:2 0.00162869688
4 *33:3 0.000713933
5 *512:D *353:10 0.00024938584
6 *512:D *677:AN 0.000415623203
7 *512:D *666:A1 0.000310242168
8 *512:D *672:AN 0.000828862188

*RES
1 *33:3 *511:Y 6.55842
2 *33:2 *33:3 3.73515
3 *512:D *33:2 12.2387409
*END

*D_NET *34 0.0113028

*CONN
*I *517:A I *C 75.4 51 *L 0.00242 *D NOR2X1TR
*I *472:C I *C 30.2 55.4 *L 0.00247 *D NOR3BX1TR
*I *434:Y O *C 28.6 50.2 *L 0 *D INVX1TR

*CAP
1 *517:A 0.0013308
2 *472:C 0.000209149
3 *434:Y 0.000337841
4 *34:3 0.00246387719
5 *34:4 0.00194054
6 *34:5 0.00135445
7 *34:4 *333:11 0.000415623203
8 *34:4 *370:16 0.000385522852
9 *34:3 *383:14 0.00144350531
10 *34:3 *46:3 0.00142145156

*RES
1 *34:5 *434:Y 3.64974
2 *472:C *34:5 6.4468
3 *34:4 *34:5 11.7735
4 *34:3 *34:4 3.9834
5 *517:A *34:3 18.4062729
*END

*D_NET *35 0.00190902

*CONN
*I *524:C0 I *C 69.8 55 *L 0.00259 *D AOI211X1TR
*I *523:Y O *C 62.6 54.6 *L 0 *D NAND4BX1TR

*CAP
1 *524:C0 0.000549314
2 *523:Y 0.000405195
3 *35:2 0.00095450875

*RES
1 *35:2 *523:Y 6.81375
2 *524:C0 *35:2 9.85622406
*END

*D_NET *36 0.00253654

*CONN
*I *525:B I *C 73.8 47.8 *L 0.00231 *D NOR2X1TR
*I *519:B I *C 73.8 51.4 *L 0.00231 *D NOR2X1TR
*I *395:Y O *C 80.2 50.2 *L 0 *D INVX1TR

*CAP
1 *395:Y 5.01841e-05
2 *525:B 0.00035298
3 *36:3 0.000915284
4 *36:4 0.00121808055

*RES
1 *525:B *36:4 3.52901
2 *519:B *36:4 3.00007
3 *36:4 *36:3 10.2285147
4 *36:3 *395:Y 0.221782
*END

*D_NET *37 0.00240731

*CONN
*I *529:A I *C 54.2 72.6 *L 0.00242 *D NOR2X1TR
*I *509:B I *C 52.6 73 *L 0.00231 *D NOR2X1TR
*I *505:B I *C 52.2 76.6 *L 0.00231 *D NOR2X1TR
*I *394:Y O *C 50.2 77.8 *L 0 *D INVX1TR

*CAP
1 *529:A 0.000340997
2 *509:B 0.000254927
3 *394:Y 0.000401977
4 *505:B 0.000454066
5 *37:4 0.000494658945
6 *37:5 0.000205759
7 *37:6 0.000254927

*RES
1 *505:B *394:Y 6.63483143
2 *509:B *37:6 3.40954
3 *37:5 *505:B 0.253402
4 *37:6 *37:5 3.00003
5 *529:A *37:4 6.5584
6 *37:4 *37:5 3.28279
*END

*D_NET *38 0.00613487

*CONN
*I *537:A I *C 31.8 83.8 *L 0.00202 *D INVX1TR
*I *468:Y O *C 56.6 87.8 *L 0 *D NAND2X1TR
*I *427:B I *C 49.4 83.8 *L 0.00231 *D NOR2X1TR

*CAP
1 *468:Y 0.000120697
2 *537:A 0.000982222
3 *38:3 0.000823619
4 *38:4 0.000905343
5 *38:5 0.00118464234
6 *38:4 *427:A 0.00141024594
7 *38:4 *255:6 0.000485062617
8 *38:3 *68:7 0.000223040586

*RES
1 *537:A *38:5 5.03673
2 *38:5 *38:4 3.44667
3 *427:B *38:4 3.0001
4 *38:4 *38:3 11.5221739
5 *38:3 *468:Y 0.601813
*END

*D_NET *39 0.00167191

*CONN
*I *540:D I *C 20.6 40.6 *L 0.0027 *D NOR4BX1TR
*I *539:Y O *C 20.6 48.6 *L 0 *D NAND3X1TR

*CAP
1 *540:D 0.000835955156
2 *39:2 0.000835955156

*RES
1 *39:2 *539:Y 3.00002
2 *540:D *39:2 7.15410709
*END

*D_NET *40 0.00159192

*CONN
*I *540:C I *C 20.2 41 *L 0.00274 *D NOR4BX1TR
*I *527:Y O *C 21 33 *L 0 *D NAND4X1TR

*CAP
1 *540:C 0.000447868
2 *527:Y 0.000348092
3 *40:2 0.000795960391

*RES
1 *40:2 *527:Y 6.59565
2 *540:C *40:2 6.78181648
*END

*D_NET *41 0.00141525

*CONN
*I *547:C I *C 78.2 36.6 *L 0.0026 *D NOR3X1TR
*I *546:Y O *C 78.2 33 *L 0 *D OAI211X1TR

*CAP
1 *546:Y 0.000284735
2 *547:C 0.000422891
3 *41:2 0.000707626328

*RES
1 *547:C *41:2 9.56714153
2 *41:2 *546:Y 3.33498
*END

*D_NET *42 0.00321698

*CONN
*I *548:A I *C 79.4 65.4 *L 0.00246 *D NAND3X1TR
*I *481:B I *C 83 62.2 *L 0.00242 *D NAND2X1TR
*I *452:A I *C 81.4 65.4 *L 0.00242 *D NOR2X1TR
*I *451:Y O *C 84.6 66.6 *L 0 *D XOR2X1TR
*I *432:A I *C 84.6 62.2 *L 0.00202 *D INVX1TR

*CAP
1 *432:A 0.000309225
2 *451:Y 0.000163081
3 *481:B 0.000429151
4 *452:A 8.53498e-05
5 *548:A 0.000271142
6 *42:5 0.000629603867
7 *42:6 0.000470577
8 *42:7 0.000350536
9 *42:8 0.000508304

*RES
1 *548:A *42:8 9.48393345
2 *42:8 *42:7 0.29782
3 *452:A *42:8 9.07439
4 *481:B *42:6 3.55836
5 *42:6 *42:7 3.03724
6 *42:7 *42:5 3.3164
7 *42:5 *451:Y 6.26059
8 *432:A *42:5 6.63294
*END

*D_NET *43 0.00190246

*CONN
*I *549:C I *C 77.4 41.4 *L 0.0026 *D NAND4X1TR
*I *547:Y O *C 79 36.2 *L 0 *D NOR3X1TR

*CAP
1 *549:C 0.000447213
2 *547:Y 0.000452581
3 *43:2 0.000504016875
4 *43:3 0.000498649

*RES
1 *43:3 *43:2 3.04652
2 *43:2 *547:Y 6.56347
3 *549:C *43:3 6.78181648
*END

*D_NET *44 0.00100636

*CONN
*I *550:A I *C 33.4 15 *L 0.00229 *D NAND2X1TR
*I *516:Y O *C 35.4 13 *L 0 *D INVX1TR
*I *416:B I *C 35 15.4 *L 0.00231 *D NOR2X1TR

*CAP
1 *516:Y 2.94428e-05
2 *550:A 0.00014472
3 *44:3 0.000329018
4 *44:4 2.94428e-05
5 *44:5 0.000473737734

*RES
1 *550:A *44:5 0.475144
2 *44:4 *516:Y 0.0949975
3 *44:3 *44:4 3.00002
4 *44:5 *44:3 3.40950489
5 *416:B *44:5 0.500011
*END

*D_NET *45 0.00572985

*CONN
*I *555:A I *C 75.8 72.6 *L 0.00242 *D NOR2X1TR
*I *518:B I *C 67.8 76.6 *L 0.00231 *D NOR2X1TR
*I *464:B I *C 67 73 *L 0.00231 *D NOR2X1TR
*I *463:Y O *C 75 80.6 *L 0 *D NAND2X1TR
*I *414:A I *C 71 73 *L 0.00293 *D CLKINVX2TR

*CAP
1 *555:A 0.000189248
2 *463:Y 8.66055e-05
3 *414:A 0.000308155
4 *518:B 0.000226143
5 *464:B 0.000210581
6 *45:5 0.00028491
7 *45:6 0.000589369
8 *45:7 0.000708222422
9 *45:8 0.000612323
10 *45:9 0.000631094
11 *464:B *132:6 0.000140786172
12 *45:9 *224:12 0.000864625
13 *45:9 *305:14 0.000398159023
14 *45:7 *479:B 0.000172793867
15 *555:A *283:5 0.000306844707

*RES
1 *464:B *45:9 3.33497
2 *45:9 *45:8 3.90281
3 *518:B *45:9 3.4653
4 *414:A *45:8 6.66843
5 *45:8 *45:7 0.40949
6 *45:6 *463:Y 0.278726
7 *45:7 *45:6 7.08830357
8 *555:A *45:5 6.48391
9 *45:5 *45:7 3.31637
*END

*D_NET *46 0.0131533

*CONN
*I *556:D I *C 78.2 47.8 *L 0.0027 *D NOR4BX1TR
*I *534:C I *C 20.6 55.4 *L 0.00247 *D NOR3BX1TR
*I *533:Y O *C 24.2 54.6 *L 0 *D NAND2X1TR

*CAP
1 *556:D 0.00119101
2 *533:Y 9.49989e-05
3 *534:C 0.000304143
4 *46:3 0.00241982
5 *46:4 0.00300180906
6 *46:5 0.0002604
7 *46:6 0.00224255
8 *46:4 *133:6 0.000769972813
9 *46:3 *324:5 0.00144708156
10 *46:3 *34:3 0.00142145156

*RES
1 *534:C *46:6 9.45252
2 *46:6 *46:5 6.2234
3 *46:5 *533:Y 0.348538
4 *46:4 *46:6 10.7187
5 *46:3 *46:4 4.2813
6 *556:D *46:3 18.7227726
*END

*D_NET *47 0.00318992

*CONN
*I *556:AN I *C 77.4 47.8 *L 0.0018 *D NOR4BX1TR
*I *549:A I *C 76.2 41 *L 0.00282 *D NAND4X1TR
*I *517:Y O *C 75.8 51.8 *L 0 *D NOR2X1TR

*CAP
1 *556:AN 5.7826e-05
2 *517:Y 0.000575778
3 *549:A 0.000961357
4 *47:3 0.00159496063

*RES
1 *549:A *47:3 4.62138653
2 *47:3 *517:Y 3.85466
3 *556:AN *47:3 3.22177
*END

*D_NET *48 0.00438356

*CONN
*I *557:C I *C 76.6 43.4 *L 0.0026 *D NAND4X1TR
*I *543:D I *C 69.4 36.6 *L 0.00252 *D NAND4X1TR
*I *542:Y O *C 75.8 37.4 *L 0 *D NAND2X1TR

*CAP
1 *542:Y 6.06797e-05
2 *557:C 0.000986809
3 *543:D 0.00110124
4 *48:3 0.000103702
5 *48:4 0.00213110453

*RES
1 *543:D *48:4 10.9585524
2 *557:C *48:4 7.63801
3 *48:3 *542:Y 0.221726
4 *48:4 *48:3 3.0744
*END

*D_NET *49 0.00180316

*CONN
*I *557:B I *C 77 43.8 *L 0.00266 *D NAND4X1TR
*I *556:Y O *C 79.4 49 *L 0 *D NOR4BX1TR

*CAP
1 *556:Y 0.000343202
2 *557:B 0.000558378
3 *49:2 0.000901579844

*RES
1 *557:B *49:2 12.7817392
2 *49:2 *556:Y 3.48408
*END

*D_NET *50 0.00526714

*CONN
*I *567:A1 I *C 64.2 58.2 *L 0.00263 *D OAI211X1TR
*I *474:A I *C 79.8 58.2 *L 0.00229 *D NAND2X1TR
*I *469:A I *C 77 58.2 *L 0.00229 *D NAND2X1TR
*I *461:Y O *C 81.8 57.4 *L 0 *D INVX1TR
*I *409:A I *C 67.8 58.2 *L 0.00242 *D NOR2X1TR

*CAP
1 *461:Y 9.1792e-05
2 *474:A 4.58268e-05
3 *469:A 0.000306073
4 *409:A 7.02739e-05
5 *567:A1 0.000382251
6 *50:5 0.000628106
7 *50:6 0.00151145453
8 *50:7 0.00116742
9 *567:A1 *323:9 0.000174522402
10 *567:A1 *638:A0 0.000280261035
11 *50:7 *424:A 0.00025629998
12 *50:7 *370:14 0.000161528584
13 *50:6 *256:11 0.000191330918

*RES
1 *567:A1 *50:7 6.83962
2 *50:7 *50:6 1.6566
3 *409:A *50:7 9.07444954
4 *50:6 *50:5 7.06103
5 *469:A *50:6 6.61849
6 *474:A *50:5 0.221683
7 *50:5 *461:Y 0.348517
*END

*D_NET *51 0.00215614

*CONN
*I *568:D I *C 65.8 55 *L 0.0027 *D NOR4BX1TR
*I *567:Y O *C 63.4 59 *L 0 *D OAI211X1TR

*CAP
1 *567:Y 0.000774627
2 *568:D 0.000303442
3 *51:2 0.00107806922

*RES
1 *568:D *51:2 6.40949
2 *51:2 *567:Y 9.87684727
*END

*D_NET *52 0.00353873

*CONN
*I *570:C I *C 66.6 43.4 *L 0.0026 *D NAND4X1TR
*I *568:Y O *C 67 56.2 *L 0 *D NOR4BX1TR

*CAP
1 *568:Y 5.23236e-05
2 *570:C 0.00171704
3 *52:2 0.00176936391

*RES
1 *570:C *52:2 11.7734671
2 *52:2 *568:Y 0.221687
*END

*D_NET *53 0.00626248

*CONN
*I *571:B1 I *C 66.2 19 *L 0.00251 *D AOI22X1TR
*I *570:Y O *C 67 44.6 *L 0 *D NAND4X1TR

*CAP
1 *570:Y 0.000242768
2 *571:B1 0.00025719
3 *53:2 0.00179619
4 *53:3 0.00181061031
5 *571:B1 *161:2 0.000158309941
6 *53:3 *676:B 0.000220477578
7 *53:3 *218:4 0.000950336484
8 *53:3 *112:16 0.000826597188

*RES
1 *571:B1 *53:3 9.3735
2 *53:3 *53:2 4.43006
3 *53:2 *570:Y 12.2791529
*END

*D_NET *54 0.00582689

*CONN
*I *571:A1 I *C 64.6 19.4 *L 0.0027 *D AOI22X1TR
*I *549:Y O *C 77.8 40.2 *L 0 *D NAND4X1TR

*CAP
1 *549:Y 0.000200572
2 *571:A1 0.000746596
3 *54:2 0.00189101703
4 *54:3 0.00173413
5 *54:4 0.000790312
6 *571:A1 *152:5 0.000464260586

*RES
1 *571:A1 *54:4 11.3092
2 *54:4 *54:3 3.05584
3 *54:3 *54:2 4.20666
4 *54:2 *549:Y 12.1861696
*END

*D_NET *55 0.00334275

*CONN
*I *575:A I *C 82.2 44.2 *L 0.00202 *D INVX1TR
*I *556:B I *C 79 47.8 *L 0.00289 *D NOR4BX1TR
*I *536:B0 I *C 78.2 51.4 *L 0.00236 *D AOI21X1TR
*I *535:Y O *C 80.6 44.6 *L 0 *D NOR2X1TR

*CAP
1 *575:A 0.000494245
2 *556:B 0.000125711
3 *536:B0 0.00034588
4 *55:4 0.000806804
5 *55:5 0.000831246406
6 *55:6 0.000738856

*RES
1 *55:6 *55:5 6.69801
2 *536:B0 *55:6 6.55839
3 *556:B *55:5 6.2978
4 *55:4 *535:Y 2.99995
5 *55:5 *55:4 0.451744
6 *575:A *55:4 10.0221634
*END

*D_NET *56 0.00177181

*CONN
*I *578:D I *C 73.4 26.6 *L 0.00162 *D OR4X1TR
*I *577:Y O *C 69 25.8 *L 0 *D NAND4X1TR

*CAP
1 *578:D 0.000524942
2 *577:Y 5.19814e-05
3 *56:2 0.000833928594
4 *56:3 0.000360968

*RES
1 *56:3 *577:Y 6.07442
2 *56:2 *56:3 3.41884
3 *578:D *56:2 9.93072987
*END

*D_NET *57 0.0103822

*CONN
*I *584:B I *C 59 65.8 *L 0.00231 *D NOR2X1TR
*I *561:B I *C 65 40.6 *L 0.00231 *D NOR2X1TR
*I *494:A I *C 59.4 40.6 *L 0.00202 *D INVX1TR
*I *493:Y O *C 64.6 66.2 *L 0 *D NOR2X1TR

*CAP
1 *561:B 0.000161285
2 *493:Y 0.000114255
3 *494:A 0.000380576
4 *584:B 0.000873153
5 *57:4 0.000510211
6 *57:5 0.00133152
7 *57:6 0.00127244
8 *57:7 0.000568445
9 *57:8 0.00135475391
10 *494:A *560:A 0.000373125078
11 *494:A *612:A 0.00025868416
12 *57:6 *349:6 0.000963091875
13 *57:6 *124:11 0.000760078438
14 *57:6 *336:8 0.00146055219

*RES
1 *584:B *57:8 10.6472969
2 *494:A *57:7 10.0238
3 *57:7 *57:6 3.03728
4 *57:6 *57:5 4.56039
5 *57:5 *57:8 0.260594
6 *57:8 *57:4 7.04236
7 *57:4 *493:Y 3.15945
8 *561:B *57:7 6.26058
*END

*D_NET *58 0.000851154

*CONN
*I *592:D I *C 53.4 65.4 *L 0.00252 *D NAND4X1TR
*I *591:Y O *C 53.4 63.4 *L 0 *D NOR4BX1TR

*CAP
1 *591:Y 0.000425577148
2 *592:D 0.000425577148

*RES
1 *592:D *591:Y 6.65343
*END

*D_NET *59 0.0254696

*CONN
*I *596:A1 I *C 26.6 76.6 *L 0.00269 *D AOI211X1TR
*I *593:B I *C 27 44.2 *L 0.00242 *D NAND2X1TR
*I *588:A I *C 25 72.6 *L 0.00229 *D NAND2X1TR
*I *569:A0 I *C 28.2 47.8 *L 0.00247 *D OAI21X1TR
*I *559:B I *C 44.2 62.2 *L 0.00242 *D NAND2X1TR
*I *520:B I *C 32.6 76.6 *L 0.00242 *D NAND2X1TR
*I *492:B I *C 24.6 65.8 *L 0.00242 *D NAND2X1TR
*I *454:B I *C 66.6 51.4 *L 0.00242 *D NAND2X1TR
*I *417:Y O *C 65.8 61.4 *L 0 *D CLKINVX2TR

*CAP
1 *454:B 0.000444896
2 *417:Y 2.35465e-05
3 *559:B 0.000567375
4 *520:B 0.000629905
5 *569:A0 0.000303156
6 *593:B 0.000410383
7 *596:A1 0.000164227
8 *59:9 0.00147892
9 *59:10 0.000123539
10 *59:11 0.00153785
11 *59:12 0.00177313
12 *59:13 0.00142593
13 *59:14 0.00202505
14 *59:15 0.00185783
15 *59:16 0.00108051
16 *59:17 0.000664694
17 *59:18 0.00301980969
18 *59:19 0.000852744
19 *59:18 *227:6 0.000820398359
20 *59:18 *277:3 0.00017476082
21 *59:17 *595:A 0.000497698789
22 *59:17 *133:6 0.000625491133
23 *59:16 *596:C0 0.000371217734
24 *59:15 *205:13 0.00116318461
25 *59:15 *114:4 0.00123572352
26 *59:13 *104:13 0.00117599961
27 *59:13 *263:6 0.000453948984
28 *59:9 *105:9 0.000567674648

*RES
1 *492:B *59:19 2.99995
2 *59:19 *59:18 7.20064
3 *588:A *59:17 6.00006
4 *59:17 *59:19 1.37741
5 *596:A1 *59:16 6.29787
6 *59:16 *59:17 3.79106
7 *59:15 *59:18 9.53665
8 *59:18 *59:14 9.86230373
9 *593:B *59:15 3.48407
10 *569:A0 *59:15 6.57703
11 *520:B *59:16 7.49108
12 *59:14 *59:13 3.05579
13 *59:13 *59:12 4.3742
14 *559:B *59:14 9.60949
15 *59:12 *59:11 6.80035
16 *59:10 *417:Y 0.0949572
17 *59:11 *59:10 6.11172
18 *59:9 *59:11 4.67788
19 *454:B *59:9 3.55841
*END

*D_NET *60 0.0024246

*CONN
*I *596:A0 I *C 26.2 76.2 *L 0.00288 *D AOI211X1TR
*I *538:A I *C 28.6 79.8 *L 0.00229 *D NAND2X1TR
*I *537:Y O *C 31.4 85 *L 0 *D INVX1TR

*CAP
1 *538:A 0.000311972
2 *537:Y 0.000186266
3 *596:A0 0.00053877
4 *60:3 0.000311972
5 *60:4 0.000361559
6 *60:5 0.000714063672

*RES
1 *60:5 *60:4 3.82367
2 *596:A0 *60:5 7.3029995
3 *60:4 *537:Y 0.855375
4 *60:3 *60:4 3.00005
5 *538:A *60:3 6.70727
*END

*D_NET *61 0.00284958

*CONN
*I *550:B I *C 32.6 15.4 *L 0.00242 *D NAND2X1TR
*I *515:B I *C 37 15.4 *L 0.00242 *D NAND2X1TR
*I *514:Y O *C 28.2 16.2 *L 0 *D XOR2X1TR
*I *428:B I *C 30.6 15.4 *L 0.00231 *D NOR2X1TR
*I *416:A I *C 35.8 15 *L 0.00242 *D NOR2X1TR

*CAP
1 *515:B 2.31276e-05
2 *416:A 0.000124868
3 *550:B 0.000217259
4 *428:B 7.67639e-05
5 *514:Y 0.000222806
6 *61:5 0.000718714
7 *61:6 0.000977218125
8 *61:7 0.00048881

*RES
1 *61:7 *514:Y 6.43181801
2 *428:B *61:7 3.2589
3 *61:6 *61:7 3.44674
4 *550:B *61:6 6.24397
5 *416:A *61:5 6.26066
6 *61:5 *61:6 3.94932
7 *515:B *61:5 3.095
*END

*D_NET *62 0.00318539

*CONN
*I *516:A I *C 35.8 11.8 *L 0.00202 *D INVX1TR
*I *515:A I *C 37.8 15 *L 0.00229 *D NAND2X1TR
*I *513:Y O *C 33 11 *L 0 *D XOR2X1TR
*I *428:A I *C 31.4 15 *L 0.00242 *D NOR2X1TR

*CAP
1 *515:A 0.00037658
2 *516:A 9.09603e-05
3 *513:Y 0.000205047
4 *428:A 0.00045693
5 *62:4 0.00093072
6 *62:5 0.00112515688

*RES
1 *428:A *62:5 6.89351559
2 *62:5 *513:Y 6.26061
3 *516:A *62:4 3.29624
4 *62:4 *62:5 6.7574
5 *515:A *62:4 6.80043
*END

*D_NET *63 0.00123358

*CONN
*I *598:A2 I *C 53.8 14.2 *L 0.0028 *D OAI31X1TR
*I *597:Y O *C 53 23 *L 0 *D NAND4BX1TR

*CAP
1 *597:Y 0.000616788867
2 *598:A2 0.000616788867

*RES
1 *598:A2 *597:Y 10.2491
*END

*D_NET *64 0.000850677

*CONN
*I *599:C0 I *C 57 11.8 *L 0.00245 *D OAI211X1TR
*I *598:Y O *C 55.4 15.8 *L 0 *D OAI31X1TR

*CAP
1 *598:Y 0.00042533875
2 *599:C0 0.00042533875

*RES
1 *599:C0 *598:Y 7.01296
*END

*D_NET *65 0.00238931

*CONN
*I *599:B0 I *C 57 11 *L 0.00265 *D OAI211X1TR
*I *571:Y O *C 64.6 18.6 *L 0 *D AOI22X1TR

*CAP
1 *571:Y 7.42007e-05
2 *599:B0 0.000445546
3 *65:2 0.00074912
4 *65:3 0.00112044812

*RES
1 *599:B0 *65:3 10.0330114
2 *65:3 *65:2 7.68459
3 *65:2 *571:Y 0.348437
*END

*D_NET *66 0.00153983

*CONN
*I *599:A0 I *C 56.6 12.2 *L 0.00269 *D OAI211X1TR
*I *512:Y O *C 55.4 20.2 *L 0 *D NOR4BX1TR

*CAP
1 *599:A0 0.000557596
2 *512:Y 4.27418e-05
3 *66:2 0.000727176641
4 *66:3 0.000212311

*RES
1 *66:3 *512:Y 0.126715
2 *599:A0 *66:2 7.07960129
3 *66:2 *66:3 3.33974
*END

*D_NET *67 0.0193599

*CONN
*I *602:B I *C 35.4 80.2 *L 0.00242 *D NAND2X1TR
*I *589:A I *C 46.6 77 *L 0.00229 *D NAND2X1TR
*I *526:A I *C 17.4 58.2 *L 0.00229 *D NAND2X1TR
*I *492:A I *C 23.8 65.4 *L 0.00229 *D NAND2X1TR
*I *478:A I *C 33 58.2 *L 0.00229 *D NAND2X1TR
*I *471:A I *C 29 62.6 *L 0.00229 *D NAND2X1TR
*I *470:A I *C 37.8 79.8 *L 0.00141 *D AND2X1TR
*I *427:Y O *C 48.2 83.4 *L 0 *D NOR2X1TR
*I *426:A I *C 34.6 65.4 *L 0.00229 *D NAND2X1TR

*CAP
1 *589:A 0.000280974
2 *427:Y 0.000222697
3 *470:A 0.000135659
4 *602:B 0.000119872
5 *426:A 0.000186546
6 *478:A 0.000108073
7 *471:A 0.000208673
8 *492:A 0.000940079
9 *526:A 0.000140067
10 *67:9 0.000520717
11 *67:10 0.000932395
12 *67:11 0.000583907
13 *67:12 0.00196707
14 *67:13 0.00275158875
15 *67:14 0.00153918
16 *67:15 0.00172896
17 *67:16 0.00198198
18 *67:16 *361:10 0.000851273516
19 *67:15 *373:5 0.00029599666
20 *492:A *264:7 0.000427246094
21 *471:A *225:4 0.000282287598
22 *67:13 *245:9 0.000513076797
23 *67:13 *188:6 0.000557065
24 *67:11 *338:23 0.000960707656
25 *67:11 *112:18 0.000793337813
26 *589:A *253:9 0.000330507773

*RES
1 *526:A *67:16 6.40959
2 *67:16 *67:15 8.22429
3 *492:A *67:16 11.4798
4 *67:15 *67:14 7.32158
5 *471:A *67:15 6.48401
6 *67:13 *67:12 12.9368305
7 *478:A *67:14 3.29619
8 *67:14 *67:13 1.41457
9 *426:A *67:13 3.70323
10 *602:B *67:12 6.11171
11 *67:12 *67:11 0.484026
12 *470:A *67:11 6.11171
13 *67:11 *67:10 4.74965
14 *67:10 *67:9 3.45174
15 *67:9 *427:Y 0.728605
16 *589:A *67:10 3.81753
*END

*D_NET *68 0.00857622

*CONN
*I *603:A2 I *C 59.8 79.8 *L 0.00256 *D AOI31X1TR
*I *483:A I *C 60.2 84.2 *L 0.00242 *D NOR2X1TR
*I *468:A I *C 57 87 *L 0.00229 *D NAND2X1TR
*I *458:A I *C 70.6 77 *L 0.00229 *D NAND2X1TR
*I *456:Y O *C 67.4 86.2 *L 0 *D INVX1TR
*I *422:A I *C 51.4 84.2 *L 0.00242 *D NOR2X1TR

*CAP
1 *458:A 0.0011167
2 *456:Y 0.000138272
3 *603:A2 0.000431661
4 *468:A 3.77371e-05
5 *422:A 0.000671576
6 *68:6 0.000160448
7 *68:7 0.00080335
8 *68:8 0.00190973281
9 *68:9 0.000593537
10 *68:10 0.00162654
11 *603:A2 *603:A1 0.000702977188
12 *68:7 *38:3 0.000223040586
13 *458:A *435:A 0.000160634521

*RES
1 *422:A *68:10 10.7496977
2 *468:A *68:9 0.221765